            TRNSYS - the TRaNsient SYstem Simulation program

   The Solar Energy Lab at the University of Wisconsin - Madison, USA
Le Centre Scientifique et Technique du Batiment, Sophia Antipolis, France
           Transsolar Energietechnik GmBH, Stuttgart, Germany
        Thermal Energy System Specialists, LLC, Madison Wisconsin, USA

                           Release 18.02.0002
                           User ID  18-F1234

Listing file for: "C:\Users\YJT\Desktop\Midterm_defense_TRNSYS\onload_trnsys\oneload.dck"
 
*** Notice at time        :         0.000000
    Generated by Unit     : Not applicable or not available
    Generated by Type     : Not applicable or not available
    Message               : The TRNSYS Executable (TRNExe.exe) and main DLL (TRNDll.dll) are located in "C:\TRNSYS18\Exe"
 

 *** Pre-Processing the TRNSYS EQUATIONs and CONSTANTs to check for fatal errors.

 *** Pre-Processing of EQUATIONs and CONSTANTs completed with no fatal errors found.

 *** Evaluating the EQUATIONs and CONSTANTs to determine their initial values.

 *** Finished evaluating the EQUATIONs and CONSTANTs and ready to begin processing the remainder of the TRNSYS input file.

  VERSION        18
*******************************************************************************                                                                                                                                                                                                                                                                                                                                                                                                                                                                                                                                                                                                                                                                                                                                                                                                                                                                                                                                                         
*** TRNSYS input file (deck) generated by TrnsysStudio                                                                                                                                                                                                                                                                                                                                                                                                                                                                                                                                                                                                                                                                                                                                                                                                                                                                                                                                                                                  
*** on 星期四, 十二月 22, 2022 at 22:28                                                                                                                                                                                                                                                                                                                                                                                                                                                                                                                                                                                                                                                                                                                                                                                                                                                                                                                                                                                                 
*** from TrnsysStudio project: C:\Users\YJT\Desktop\Midterm_defense_TRNSYS\onload_trnsys\oneload.tpf                                                                                                                                                                                                                                                                                                                                                                                                                                                                                                                                                                                                                                                                                                                                                                                                                                                                                                                                    
***                                                                                                                                                                                                                                                                                                                                                                                                                                                                                                                                                                                                                                                                                                                                                                                                                                                                                                                                                                                                                                     
*** If you edit this file, use the File/Import TRNSYS Input File function in                                                                                                                                                                                                                                                                                                                                                                                                                                                                                                                                                                                                                                                                                                                                                                                                                                                                                                                                                            
*** TrnsysStudio to update the project.                                                                                                                                                                                                                                                                                                                                                                                                                                                                                                                                                                                                                                                                                                                                                                                                                                                                                                                                                                                                 
***                                                                                                                                                                                                                                                                                                                                                                                                                                                                                                                                                                                                                                                                                                                                                                                                                                                                                                                                                                                                                                     
*** If you have problems, questions or suggestions please contact your local                                                                                                                                                                                                                                                                                                                                                                                                                                                                                                                                                                                                                                                                                                                                                                                                                                                                                                                                                            
*** TRNSYS distributor or mailto:software@cstb.fr                                                                                                                                                                                                                                                                                                                                                                                                                                                                                                                                                                                                                                                                                                                                                                                                                                                                                                                                                                                       
***                                                                                                                                                                                                                                                                                                                                                                                                                                                                                                                                                                                                                                                                                                                                                                                                                                                                                                                                                                                                                                     
*******************************************************************************                                                                                                                                                                                                                                                                                                                                                                                                                                                                                                                                                                                                                                                                                                                                                                                                                                                                                                                                                         
*******************************************************************************                                                                                                                                                                                                                                                                                                                                                                                                                                                                                                                                                                                                                                                                                                                                                                                                                                                                                                                                                         
*** Units                                                                                                                                                                                                                                                                                                                                                                                                                                                                                                                                                                                                                                                                                                                                                                                                                                                                                                                                                                                                                               
*******************************************************************************                                                                                                                                                                                                                                                                                                                                                                                                                                                                                                                                                                                                                                                                                                                                                                                                                                                                                                                                                         
*******************************************************************************                                                                                                                                                                                                                                                                                                                                                                                                                                                                                                                                                                                                                                                                                                                                                                                                                                                                                                                                                         
*** Control cards                                                                                                                                                                                                                                                                                                                                                                                                                                                                                                                                                                                                                                                                                                                                                                                                                                                                                                                                                                                                                       
*******************************************************************************                                                                                                                                                                                                                                                                                                                                                                                                                                                                                                                                                                                                                                                                                                                                                                                                                                                                                                                                                         
* START, STOP and STEP                                                                                                                                                                                                                                                                                                                                                                                                                                                                                                                                                                                                                                                                                                                                                                                                                                                                                                                                                                                                                  

  CONSTANTS   3
     START=8016
     STOP=8760
     STEP=5/60
! Start time	End time	Time step                                                                                                                                                                                                                                                                                                                                                                                                                                                                                                                                                                                                                                                                                                                                                                                                                                                                                                                                                                          

  SIMULATION         8.0160000000000000E+03    8.7600000000000000E+03    8.3333333333333329E-02
! Integration	 Convergence                                                                                                                                                                                                                                                                                                                                                                                                                                                                                                                                                                                                                                                                                                                                                                                                                                                                                                                                                                                     

  TOLERANCES         1.0000000000000002E-03    1.0000000000000002E-03
! Max iterations	Max warnings	Trace limit                                                                                                                                                                                                                                                                                                                                                                                                                                                                                                                                                                                                                                                                                                                                                                                                                                                                                                                                                                       

  LIMITS        30   3000000        31
! TRNSYS numerical integration solver method                                                                                                                                                                                                                                                                                                                                                                                                                                                                                                                                                                                                                                                                                                                                                                                                                                                                                                                                                                                  

  DFQ   1
! TRNSYS output file width, number of characters                                                                                                                                                                                                                                                                                                                                                                                                                                                                                                                                                                                                                                                                                                                                                                                                                                                                                                                                                                            

  WIDTH    80
! NOLIST statement                                                                                                                                                                                                                                                                                                                                                                                                                                                                                                                                                                                                                                                                                                                                                                                                                                                                                                                                                                                                            

  LIST
! MAP statement                                                                                                                                                                                                                                                                                                                                                                                                                                                                                                                                                                                                                                                                                                                                                                                                                                                                                                                                                                                                                    
! Solver statement	Minimum relaxation factor	Maximum relaxation factor                                                                                                                                                                                                                                                                                                                                                                                                                                                                                                                                                                                                                                                                                                                                                                                                                                                                                                                                                  

  SOLVER  0
    1.000000000000000    
    1.000000000000000    
! Nan DEBUG statement                                                                                                                                                                                                                                                                                                                                                                                                                                                                                                                                                                                                                                                                                                                                                                                                                                                                                                                                                                                                    

  NAN_CHECK   0
! Overwrite DEBUG statement                                                                                                                                                                                                                                                                                                                                                                                                                                                                                                                                                                                                                                                                                                                                                                                                                                                                                                                                                                                         

  OVERWRITE_CHECK   0
! disable time report                                                                                                                                                                                                                                                                                                                                                                                                                                                                                                                                                                                                                                                                                                                                                                                                                                                                                                                                                                                                   

  TIME_REPORT   0
! EQUATION SOLVER statement                                                                                                                                                                                                                                                                                                                                                                                                                                                                                                                                                                                                                                                                                                                                                                                                                                                                                                                                                                                               

  EQUATION SOLVING METHOD         0
* User defined CONSTANTS                                                                                                                                                                                                                                                                                                                                                                                                                                                                                                                                                                                                                                                                                                                                                                                                                                                                                                                                                                                                                
*$USER_CONSTANTS                                                                                                                                                                                                                                                                                                                                                                                                                                                                                                                                                                                                                                                                                                                                                                                                                                                                                                                                                                                                                        

  EQUATIONS   1
     nPlots = (STOP-START)/168.
*$USER_CONSTANTS_END                                                                                                                                                                                                                                                                                                                                                                                                                                                                                                                                                                                                                                                                                                                                                                                                                                                                                                                                                                                                                    
* Model "CoolingTower" (Type 51)                                                                                                                                                                                                                                                                                                                                                                                                                                                                                                                                                                                                                                                                                                                                                                                                                                                                                                                                                                                                        
*                                                                                                                                                                                                                                                                                                                                                                                                                                                                                                                                                                                                                                                                                                                                                                                                                                                                                                                                                                                                                                       

  UNIT    3     TYPE   51     CoolingTower                                  
*$UNIT_NAME CoolingTower                                                                                                                                                                                                                                                                                                                                                                                                                                                                                                                                                                                                                                                                                                                                                                                                                                                                                                                                                                                                                
*$MODEL .\HVAC\Cooling Towers\User-Supplied Coefficients\TYPE51b.tmf                                                                                                                                                                                                                                                                                                                                                                                                                                                                                                                                                                                                                                                                                                                                                                                                                                                                                                                                                                    
*$POSITION 558 1078                                                                                                                                                                                                                                                                                                                                                                                                                                                                                                                                                                                                                                                                                                                                                                                                                                                                                                                                                                                                                     
*$LAYER Main #                                                                                                                                                                                                                                                                                                                                                                                                                                                                                                                                                                                                                                                                                                                                                                                                                                                                                                                                                                                                                          
       PARAMETERS  11
! 1 Calculation mode                                                                                                                                                                                                                                                                                                                                                                                                                                                                                                                                                                                                                                                                                                                                                                                                                                                                                                                                                                                                                 
! 2 Flow geometry                                                                                                                                                                                                                                                                                                                                                                                                                                                                                                                                                                                                                                                                                                                                                                                                                                                                                                                                                                                                                    
! 3 Number of tower cells                                                                                                                                                                                                                                                                                                                                                                                                                                                                                                                                                                                                                                                                                                                                                                                                                                                                                                                                                                                                            
! 4 Maximum cell flow rate                                                                                                                                                                                                                                                                                                                                                                                                                                                                                                                                                                                                                                                                                                                                                                                                                                                                                                                                                                                                       
! 5 Fan power at maximum flow                                                                                                                                                                                                                                                                                                                                                                                                                                                                                                                                                                                                                                                                                                                                                                                                                                                                                                                                                                                                        
! 6 Minimum cell flow rate                                                                                                                                                                                                                                                                                                                                                                                                                                                                                                                                                                                                                                                                                                                                                                                                                                                                                                                                                                                                          
! 7 Sump volume                                                                                                                                                                                                                                                                                                                                                                                                                                                                                                                                                                                                                                                                                                                                                                                                                                                                                                                                                                                                                     
! 8 Initial sump temperature                                                                                                                                                                                                                                                                                                                                                                                                                                                                                                                                                                                                                                                                                                                                                                                                                                                                                                                                                                                                      
! 9 Mass transfer constant                                                                                                                                                                                                                                                                                                                                                                                                                                                                                                                                                                                                                                                                                                                                                                                                                                                                                                                                                                                                         
! 10 Mass transfer exponent                                                                                                                                                                                                                                                                                                                                                                                                                                                                                                                                                                                                                                                                                                                                                                                                                                                                                                                                                                                                      
! 11 Print performance results?                                                                                                                                                                                                                                                                                                                                                                                                                                                                                                                                                                                                                                                                                                                                                                                                                                                                                                                                                                                                      
       1.0000000000000000E+00    1.0000000000000000E+00    1.0000000000000000E+00    2.7885000000000000E+04    8.0000000000000000E+00
       1.0000000000000000E+01    1.5000000000000000E+01    1.5000000000000000E+01    2.2999999999999998E+00   -7.2000000000000008E-01
       1.0000000000000000E+00
       INPUTS    6
! Type5b:Source side outlet temperature ->Water inlet temperature                                                                                                                                                                                                                                                                                                                                                                                                                                                                                                                                                                                                                                                                                                                                                                                                                                                                                                                                                                
! Type5b:Source side flow rate ->Inlet water flow rate                                                                                                                                                                                                                                                                                                                                                                                                                                                                                                                                                                                                                                                                                                                                                                                                                                                                                                                                                                           
! TYPE33e:Dry bulb temperature ->Dry bulb temperature                                                                                                                                                                                                                                                                                                                                                                                                                                                                                                                                                                                                                                                                                                                                                                                                                                                                                                                                                                            
! TYPE33e:Wet bulb temperature ->Wet bulb temperature                                                                                                                                                                                                                                                                                                                                                                                                                                                                                                                                                                                                                                                                                                                                                                                                                                                                                                                                                                            
! [unconnected] Sump make-up temperature                                                                                                                                                                                                                                                                                                                                                                                                                                                                                                                                                                                                                                                                                                                                                                                                                                                                                                                                                                                           
! Type22-7:Control signal ->Relative fan speed for cell                                                                                                                                                                                                                                                                                                                                                                                                                                                                                                                                                                                                                                                                                                                                                                                                                                                                                                                                                                           
       37,1                                     37,2                                     30,7                                     30,2                                     CONST                                   
       9,1                                     
*** INITIAL INPUT VALUES                                                                                                                                                                                                                                                                                                                                                                                                                                                                                                                                                                                                                                                                                                                                                                                                                                                                                                                                                                                                                
       1.8000000000000000E+01    5.1552000000000000E+04    1.5000000000000000E+01    1.2000000000000000E+01    1.0000000000000000E+01
       1.0000000000000000E+00
*------------------------------------------------------------------------------                                                                                                                                                                                                                                                                                                                                                                                                                                                                                                                                                                                                                                                                                                                                                                                                                                                                                                                                                         
* Model "Type11f" (Type 11)                                                                                                                                                                                                                                                                                                                                                                                                                                                                                                                                                                                                                                                                                                                                                                                                                                                                                                                                                                                                             
*                                                                                                                                                                                                                                                                                                                                                                                                                                                                                                                                                                                                                                                                                                                                                                                                                                                                                                                                                                                                                                       

  UNIT    7     TYPE   11     Type11f                                       
*$UNIT_NAME Type11f                                                                                                                                                                                                                                                                                                                                                                                                                                                                                                                                                                                                                                                                                                                                                                                                                                                                                                                                                                                                                     
*$MODEL .\Hydronics\Flow Diverter\Other Fluids\Type11f.tmf                                                                                                                                                                                                                                                                                                                                                                                                                                                                                                                                                                                                                                                                                                                                                                                                                                                                                                                                                                              
*$POSITION 982 1096                                                                                                                                                                                                                                                                                                                                                                                                                                                                                                                                                                                                                                                                                                                                                                                                                                                                                                                                                                                                                     
*$LAYER Main #                                                                                                                                                                                                                                                                                                                                                                                                                                                                                                                                                                                                                                                                                                                                                                                                                                                                                                                                                                                                                          
       PARAMETERS   1
! 1 Controlled flow diverter mode                                                                                                                                                                                                                                                                                                                                                                                                                                                                                                                                                                                                                                                                                                                                                                                                                                                                                                                                                                                                    
       2.0000000000000000E+00
       INPUTS    3
! Type5b:Load side outlet temperature ->Inlet temperature                                                                                                                                                                                                                                                                                                                                                                                                                                                                                                                                                                                                                                                                                                                                                                                                                                                                                                                                                                        
! Type5b:Load side flow rate ->Inlet flow rate                                                                                                                                                                                                                                                                                                                                                                                                                                                                                                                                                                                                                                                                                                                                                                                                                                                                                                                                                                                   
! [unconnected] Control signal                                                                                                                                                                                                                                                                                                                                                                                                                                                                                                                                                                                                                                                                                                                                                                                                                                                                                                                                                                                                     
       37,3                                     37,4                                     CONST                                   
*** INITIAL INPUT VALUES                                                                                                                                                                                                                                                                                                                                                                                                                                                                                                                                                                                                                                                                                                                                                                                                                                                                                                                                                                                                                
       2.0000000000000000E+01    4.2960000000000000E+04    8.0000000000000004E-01
*------------------------------------------------------------------------------                                                                                                                                                                                                                                                                                                                                                                                                                                                                                                                                                                                                                                                                                                                                                                                                                                                                                                                                                         
* Model "Type11d" (Type 11)                                                                                                                                                                                                                                                                                                                                                                                                                                                                                                                                                                                                                                                                                                                                                                                                                                                                                                                                                                                                             
*                                                                                                                                                                                                                                                                                                                                                                                                                                                                                                                                                                                                                                                                                                                                                                                                                                                                                                                                                                                                                                       

  UNIT    8     TYPE   11     Type11d                                       
*$UNIT_NAME Type11d                                                                                                                                                                                                                                                                                                                                                                                                                                                                                                                                                                                                                                                                                                                                                                                                                                                                                                                                                                                                                     
*$MODEL .\Hydronics\Flow Mixer\Other Fluids\Type11d.tmf                                                                                                                                                                                                                                                                                                                                                                                                                                                                                                                                                                                                                                                                                                                                                                                                                                                                                                                                                                                 
*$POSITION 1016 1320                                                                                                                                                                                                                                                                                                                                                                                                                                                                                                                                                                                                                                                                                                                                                                                                                                                                                                                                                                                                                    
*$LAYER Main #                                                                                                                                                                                                                                                                                                                                                                                                                                                                                                                                                                                                                                                                                                                                                                                                                                                                                                                                                                                                                          
       PARAMETERS   1
[...]
    Generated by Unit     :     3
    Generated by Type     :    51
    Message               : The correlation for the saturation temperature used in the cooling tower model was used with an enthalpy value outside the allowable range.
 
 
*** Warning at time       :      8668.166667
    Generated by Unit     :     3
    Generated by Type     :    51
    Message               : The correlation for the saturation temperature used in the cooling tower model was used with an enthalpy value outside the allowable range.
 
 
*** Warning at time       :      8668.166667
    Generated by Unit     :     3
    Generated by Type     :    51
    Message               : The correlation for the saturation temperature used in the cooling tower model was used with an enthalpy value outside the allowable range.
 

 *TRACE*  UNIT   3  TYPE   51  AT TIME   8.6681666666666661E+03  ITERATION     31  CALL   41821  ITERATIVE CALL
 P  1.0000000000000000E+00  1.0000000000000000E+00  1.0000000000000000E+00  2.7885000000000000E+04  8.0000000000000000E+00
 P  1.0000000000000000E+01  1.5000000000000000E+01  1.5000000000000000E+01  2.2999999999999998E+00 -7.2000000000000008E-01
 P  1.0000000000000000E+00
 I  1.0719630936858241E+01  5.0718809559486239E+04 -9.0364742279052734E+00 -1.0561329422133543E+01  1.0000000000000000E+01
 I  1.0000000000000000E+00
 O  8.4247586011250490E+00  5.0718809559486239E+04  8.0000000000000000E+00  1.2011526513257094E+06  5.0841359513329971E+00
 O  2.2021708461015623E+02  8.3788463694113666E+00  8.3788463694113666E+00  6.8312283474564030E-03  3.7210735288120275E+04
 O -4.1285940743535815E+05

 *TRACE*  UNIT   7  TYPE   11  AT TIME   8.6681666666666661E+03  ITERATION     31  CALL   37660  ITERATIVE CALL
 P  2.0000000000000000E+00
 I  9.4298834031669614E+00  1.2888000000000002E+04  8.0000000000000004E-01
 O  9.4298834031669614E+00  2.5775999999999999E+03  9.4298834031669614E+00  1.0310400000000001E+04

 *TRACE*  UNIT   8  TYPE   11  AT TIME   8.6681666666666661E+03  ITERATION     31  CALL   42528  ITERATIVE CALL
 P  3.0000000000000000E+00
 I  9.4298834031669614E+00  2.5775999999999999E+03  1.9676129686052779E+01  1.0310400000000001E+04  5.0000000000000000E-01
 O  1.7626880429475616E+01  6.4440000000000009E+03

 *TRACE*  UNIT  12  TYPE  662  AT TIME   8.6681666666666661E+03  ITERATION     31  CALL   35471  ITERATIVE CALL
 P  2.0000000000000000E+00  2.8512000000000000E+04  2.0159998165000005E+04  9.0000000000000002E-01  1.0000000000000002E-02
 P  3.0000000000000000E+00  0.0000000000000000E+00  5.0000000000000000E-01  5.0000000000000000E-01
 I  2.0197739735524742E+01  8.0000000000000019E-03  5.0000000000000000E+01  2.8512000000000000E+04  1.0000000000000000E+00
 I  1.0000000000000000E+00  2.0000000000000005E-03
 O  2.0822517795081097E+01  7.3522204164221611E-03  4.8205429754310117E+01  2.8512000000000000E+04  1.0020000000000000E+00
 O  2.0159998165000005E+04  1.8164158346665005E+04  1.9958398183350000E+03

 *TRACE*  UNIT  13  TYPE  759  AT TIME   8.6681666666666661E+03  ITERATION     31  CALL   34985  ITERATIVE CALL
 P  2.0000000000000000E+00  1.0000000000000000E+02  2.4000000000000000E+03  1.2000000000000000E+02  4.0000000000000000E+00
 P  2.0000000000000000E+01  5.0000000000000010E-03  5.0000000000000000E+01  1.0000000000000000E+00  1.0000000000000000E+00
 P  1.0000000000000000E+02
 I  2.0822517795081097E+01  8.0000000000000019E-03  4.8205429754310117E+01  2.8512000000000000E+04  1.0000000000000000E+00
 I  3.0000000000000000E+01  6.0000000000000019E-03  5.0000000000000000E+01  0.0000000000000000E+00  1.0000000000000000E+00
 I  3.5999997340000004E+03  3.3930188281678635E+05  0.0000000000000000E+00  0.0000000000000000E+00  0.0000000000000000E+00
 I  3.0000000000000000E+01  8.0000000000000019E-03  5.0000000000000000E+01  0.0000000000000000E+00  1.0000000000000000E+00
 I  1.0000007250000000E+03
 O  3.3586761215834279E+01  7.5479602419202541E-03  2.3352818666499559E+01  2.8512000000000000E+04  0.0000000000000000E+00
 O  1.0000000000000000E+00  0.0000000000000000E+00 -3.6644055590032157E+05 -3.5867612158342797E+02  3.4390188327578636E+05
 O  0.0000000000000000E+00 -3.5867612158342797E+02 -2.3256024867702014E+04  0.0000000000000000E+00 -1.2472890866527510E+04
 O  0.0000000000000000E+00 -1.2472890866527492E+04  0.0000000000000000E+00

 *TRACE*  UNIT  14  TYPE   52  AT TIME   8.6681666666666661E+03  ITERATION     31  CALL   38035  ITERATIVE CALL
 P  2.0000000000000000E+00  6.0000000000000000E+00  1.3000000000000000E+01  4.2000000000000002E+00  4.8700000000000004E-01
 P  9.0000000000000028E-03  8.0000000000000019E-03  1.4003999630000001E+03  3.0000000000000008E-04  4.0000000000000010E-03
 P  1.0500000000000000E+03  8.5319997700000010E+02  1.0000000000000000E+00  3.6000000000000004E-02  3.2000000000000008E-02
 I  3.3586761215834279E+01  7.5479602419202541E-03  2.8512000000000000E+04  9.4298834031669614E+00  1.0310400000000001E+04
 O  1.9480383023568180E+01  7.5479602419202541E-03  2.8512000000000000E+04  1.8927979437744209E+01  1.0310400000000001E+04
 O  4.0993150291963347E+05  4.0993150291963347E+05  0.0000000000000000E+00  1.0000000000000000E+00  2.3352818666499559E+01
 O  0.0000000000000000E+00  0.0000000000000000E+00

 *TRACE*  UNIT  33  TYPE  741  AT TIME   8.6681666666666661E+03  ITERATION     31  CALL   35502  ITERATIVE CALL
 P  4.2960000000000000E+04  4.1899999999999995E+00  1.0000000000000000E+03  3.0000000000000006E-02
 I  1.7626880429475616E+01  6.4440000000000009E+03  3.0000000000000004E-01  7.2000000000000008E-01  9.0000000000000002E-01
 I  3.0000000000000000E+02
 O  1.7645078520167740E+01  1.2888000000000002E+04  5.3700000000000000E+03  9.8270999999999981E+02  5.2088999999999987E+02
 O  3.8664000000000005E+03

 *TRACE*  UNIT  34  TYPE  741  AT TIME   8.6681666666666661E+03  ITERATION     31  CALL   21306  ITERATIVE CALL
 P  5.1552000000000000E+04  4.1899999999999995E+00  1.0000000000000000E+03  3.0000000000000006E-02
 I  8.4247586011250490E+00  5.0718809559486239E+04  0.0000000000000000E+00  7.2000000000000008E-01  9.0000000000000002E-01
 I  2.4000000000000000E+02
 O  8.4247586011250490E+00  0.0000000000000000E+00  0.0000000000000000E+00  0.0000000000000000E+00  0.0000000000000000E+00
 O  0.0000000000000000E+00

 *TRACE*  UNIT  37  TYPE    5  AT TIME   8.6681666666666661E+03  ITERATION     31  CALL   35284  ITERATIVE CALL
 P  2.0000000000000000E+00  4.1899999999999995E+00  4.1899999999999995E+00  0.0000000000000000E+00
 I  8.4247586011250490E+00  0.0000000000000000E+00  1.7645078520167740E+01  1.2888000000000002E+04  1.5000000000000000E+05
 O  8.4247586011250490E+00  0.0000000000000000E+00  1.7645078520167740E+01  1.2888000000000002E+04  0.0000000000000000E+00
 O  0.0000000000000000E+00

 *TRACE*  UNIT  46  TYPE   22  AT TIME   8.6681666666666661E+03  ITERATION     31  CALL   31395  ITERATIVE CALL
 P  0.0000000000000000E+00  9.9000000000000000E+01
 I  1.2000000000000000E+01  1.7645078520167740E+01  1.0000000000000000E+00  0.0000000000000000E+00  1.0000000000000000E+00
 I  0.0000000000000000E+00  1.0000000000000001E-01
 O  6.7604504989844139E-01 -5.6450785201677398E+00  1.0000000000000000E+00  6.7604504989844139E-01  0.0000000000000000E+00
 O -5.6450785201677398E+00  5.0000000000000000E+00 -5.3386453374201159E-01  2.7000000000000000E+01  0.0000000000000000E+00

 *TRACE*  UNIT   3  TYPE   51  AT TIME   8.6681666666666661E+03  ITERATION     32  CALL   41822  ITERATIVE CALL
 P  1.0000000000000000E+00  1.0000000000000000E+00  1.0000000000000000E+00  2.7885000000000000E+04  8.0000000000000000E+00
 P  1.0000000000000000E+01  1.5000000000000000E+01  1.5000000000000000E+01  2.2999999999999998E+00 -7.2000000000000008E-01
 P  1.0000000000000000E+00
 I  8.4247586011250490E+00  0.0000000000000000E+00 -9.0364742279052734E+00 -1.0561329422133543E+01  1.0000000000000000E+01
 I  1.0000000000000000E+00
 O  8.9143292313539959E+00  0.0000000000000000E+00  8.0000000000000000E+00  0.0000000000000000E+00  8.4247586011250490E+00
 O  0.0000000000000000E+00 -9.0364742279052734E+00 -1.0561266604959384E+01  9.7876589708189286E-04  3.7210735288120275E+04
 O -3.8211926756328257E+05

 *TRACE*  UNIT   7  TYPE   11  AT TIME   8.6681666666666661E+03  ITERATION     32  CALL   37661  ITERATIVE CALL
 P  2.0000000000000000E+00
 I  1.7645078520167740E+01  1.2888000000000002E+04  8.0000000000000004E-01
 O  1.7645078520167740E+01  2.5775999999999999E+03  1.7645078520167740E+01  1.0310400000000001E+04

 *TRACE*  UNIT   8  TYPE   11  AT TIME   8.6681666666666661E+03  ITERATION     32  CALL   42529  ITERATIVE CALL
 P  3.0000000000000000E+00
 I  1.7645078520167740E+01  2.5775999999999999E+03  1.8927979437744209E+01  1.0310400000000001E+04  5.0000000000000000E-01
 O  1.8671399254228916E+01  6.4440000000000009E+03

 *TRACE*  UNIT   9  TYPE   22  AT TIME   8.6681666666666661E+03  ITERATION     31  CALL   20711  ITERATIVE CALL
 P  0.0000000000000000E+00  9.9000000000000000E+01
 I  8.0000000000000000E+00  8.9143292313539959E+00  1.0000000000000000E+00  0.0000000000000000E+00  1.0000000000000000E+00
 I  0.0000000000000000E+00  1.0000000000000001E-01
 O  1.0000000000000000E+00 -9.1432923135399591E-01  9.0000000000000000E+00  4.1190293619587548E+00  0.0000000000000000E+00
 O -1.2074746702862527E+00  5.0000000000000000E+00 -6.5559571667629811E+01  1.1000000000000000E+01  0.0000000000000000E+00

 *TRACE*  UNIT  12  TYPE  662  AT TIME   8.6681666666666661E+03  ITERATION     32  CALL   35472  ITERATIVE CALL
 P  2.0000000000000000E+00  2.8512000000000000E+04  2.0159998165000005E+04  9.0000000000000002E-01  1.0000000000000002E-02
 P  3.0000000000000000E+00  0.0000000000000000E+00  5.0000000000000000E-01  5.0000000000000000E-01
 I  1.9480383023568180E+01  8.0000000000000019E-03  5.0000000000000000E+01  2.8512000000000000E+04  1.0000000000000000E+00
 I  1.0000000000000000E+00  2.0000000000000005E-03
 O  2.0105530046905677E+01  7.0286636761493848E-03  4.8194008196140011E+01  2.8512000000000000E+04  1.0020000000000000E+00
 O  2.0159998165000005E+04  1.8164158346665005E+04  1.9958398183350000E+03

 *TRACE*  UNIT  13  TYPE  759  AT TIME   8.6681666666666661E+03  ITERATION     32  CALL   34986  ITERATIVE CALL
 P  2.0000000000000000E+00  1.0000000000000000E+02  2.4000000000000000E+03  1.2000000000000000E+02  4.0000000000000000E+00
 P  2.0000000000000000E+01  5.0000000000000010E-03  5.0000000000000000E+01  1.0000000000000000E+00  1.0000000000000000E+00
 P  1.0000000000000000E+02
 I  2.0105530046905677E+01  8.0000000000000019E-03  4.8194008196140011E+01  2.8512000000000000E+04  1.0000000000000000E+00
 I  3.0000000000000000E+01  6.0000000000000019E-03  5.0000000000000000E+01  0.0000000000000000E+00  1.0000000000000000E+00
 I  3.5999997340000004E+03  3.3930188281678635E+05  0.0000000000000000E+00  0.0000000000000000E+00  0.0000000000000000E+00
 I  3.0000000000000000E+01  8.0000000000000019E-03  5.0000000000000000E+01  0.0000000000000000E+00  1.0000000000000000E+00
 I  1.0000007250000000E+03
 O  3.3324113874240169E+01  7.2997740144688794E-03  2.2928294094864540E+01  2.8512000000000000E+04  0.0000000000000000E+00
 O  1.0000000000000000E+00  0.0000000000000000E+00 -3.7948392601381702E+05 -3.3241138742401688E+02  3.4390188327578636E+05
 O  0.0000000000000000E+00 -3.3241138742401688E+02 -3.6246865512878532E+04  0.0000000000000000E+00 -1.7716395448666040E+04
 O  0.0000000000000000E+00 -1.7716395448666077E+04  0.0000000000000000E+00

 *TRACE*  UNIT  14  TYPE   52  AT TIME   8.6681666666666661E+03  ITERATION     32  CALL   38036  ITERATIVE CALL
 P  2.0000000000000000E+00  6.0000000000000000E+00  1.3000000000000000E+01  4.2000000000000002E+00  4.8700000000000004E-01
 P  9.0000000000000028E-03  8.0000000000000019E-03  1.4003999630000001E+03  3.0000000000000008E-04  4.0000000000000010E-03
 P  1.0500000000000000E+03  8.5319997700000010E+02  1.0000000000000000E+00  3.6000000000000004E-02  3.2000000000000008E-02
 I  3.3324113874240169E+01  7.2997740144688794E-03  2.8512000000000000E+04  1.7645078520167740E+01  1.0310400000000001E+04
 O  2.4136053805334676E+01  7.2997740144688794E-03  2.8512000000000000E+04  2.3828738117241834E+01  1.0310400000000001E+04
 O  2.6688263236589014E+05  2.6688263236589014E+05  0.0000000000000000E+00  1.0000000000000000E+00  2.2928294094864540E+01
 O  0.0000000000000000E+00  0.0000000000000000E+00

 *TRACE*  UNIT  33  TYPE  741  AT TIME   8.6681666666666661E+03  ITERATION     32  CALL   35503  ITERATIVE CALL
 P  4.2960000000000000E+04  4.1899999999999995E+00  1.0000000000000000E+03  3.0000000000000006E-02
 I  1.8671399254228916E+01  6.4440000000000009E+03  3.0000000000000004E-01  7.2000000000000008E-01  9.0000000000000002E-01
 I  3.0000000000000000E+02
 O  1.8689597344921040E+01  1.2888000000000002E+04  5.3700000000000000E+03  9.8270999999999981E+02  5.2088999999999987E+02
 O  3.8664000000000005E+03

 *TRACE*  UNIT  34  TYPE  741  AT TIME   8.6681666666666661E+03  ITERATION     32  CALL   21307  ITERATIVE CALL
 P  5.1552000000000000E+04  4.1899999999999995E+00  1.0000000000000000E+03  3.0000000000000006E-02
 I  8.9143292313539959E+00  0.0000000000000000E+00  6.7604504989844139E-01  7.2000000000000008E-01  9.0000000000000002E-01
 I  2.4000000000000000E+02
 O  8.9288877039076944E+00  3.4851474412364449E+04  1.1617158137454815E+04  2.1259399391542311E+03  1.1268643393331167E+03
 O  8.3643538589674681E+03

 *TRACE*  UNIT  37  TYPE    5  AT TIME   8.6681666666666661E+03  ITERATION     32  CALL   35285  ITERATIVE CALL
 P  2.0000000000000000E+00  4.1899999999999995E+00  4.1899999999999995E+00  0.0000000000000000E+00
 I  8.9288877039076944E+00  3.4851474412364449E+04  1.8689597344921040E+01  1.2888000000000002E+04  1.5000000000000000E+05
 O  1.2116189048559811E+01  3.4851474412364449E+04  1.0070560158574208E+01  1.2888000000000002E+04 -4.6543421376950311E+05
 O  8.8303386775595283E-01

 *TRACE*  UNIT  46  TYPE   22  AT TIME   8.6681666666666661E+03  ITERATION     32  CALL   31396  ITERATIVE CALL
 P  0.0000000000000000E+00  9.9000000000000000E+01
 I  1.2000000000000000E+01  1.0070560158574208E+01  1.0000000000000000E+00  0.0000000000000000E+00  1.0000000000000000E+00
 I  0.0000000000000000E+00  1.0000000000000001E-01
 O  5.0383763134010517E-01  1.9294398414257916E+00  1.0000000000000000E+00  5.0383763134010517E-01  6.7604504989844139E-01
 O  1.9294398414257916E+00  1.0000000000000000E+00  6.7604504989844139E-01  2.8000000000000000E+01  0.0000000000000000E+00
 
*** Warning at time       :      8668.166667
    Generated by Unit     : Not applicable or not available
    Generated by Type     : Not applicable or not available
    TRNSYS Message    441 : The inputs to the listed units have not converged at this timestep. The values at the last iteration will be used and the simulation will proceed.
    Reported information  : UNITS: 3   7   8   9  12  13  14  33  34  37  46
 
 
*** Warning at time       :      8691.833333
    Generated by Unit     :     3
    Generated by Type     :    51
    Message               : The correlation for the saturation temperature used in the cooling tower model was used with an enthalpy value outside the allowable range.
 
 
*** Warning at time       :      8691.833333
    Generated by Unit     :     3
    Generated by Type     :    51
    Message               : The correlation for the saturation temperature used in the cooling tower model was used with an enthalpy value outside the allowable range.
 
 
*** Warning at time       :      8692.416667
    Generated by Unit     :     3
    Generated by Type     :    51
    Message               : The correlation for the saturation temperature used in the cooling tower model was used with an enthalpy value outside the allowable range.
 
 
*** Warning at time       :      8692.416667
    Generated by Unit     :     3
    Generated by Type     :    51
    Message               : The correlation for the saturation temperature used in the cooling tower model was used with an enthalpy value outside the allowable range.
 
 
*** Warning at time       :      8693.000000
    Generated by Unit     :     3
    Generated by Type     :    51
    Message               : The correlation for the saturation temperature used in the cooling tower model was used with an enthalpy value outside the allowable range.
 
 
*** Warning at time       :      8693.000000
    Generated by Unit     :     3
    Generated by Type     :    51
    Message               : The correlation for the saturation temperature used in the cooling tower model was used with an enthalpy value outside the allowable range.
 
 
*** Warning at time       :      8693.750000
    Generated by Unit     :     3
    Generated by Type     :    51
    Message               : The correlation for the saturation temperature used in the cooling tower model was used with an enthalpy value outside the allowable range.
 
 
*** Warning at time       :      8693.750000
    Generated by Unit     :     3
    Generated by Type     :    51
    Message               : The correlation for the saturation temperature used in the cooling tower model was used with an enthalpy value outside the allowable range.
 
 
*** Warning at time       :      8694.916667
    Generated by Unit     :     3
    Generated by Type     :    51
    Message               : The correlation for the saturation temperature used in the cooling tower model was used with an enthalpy value outside the allowable range.
 
 
*** Warning at time       :      8694.916667
    Generated by Unit     :     3
    Generated by Type     :    51
    Message               : The correlation for the saturation temperature used in the cooling tower model was used with an enthalpy value outside the allowable range.
 
 
*** Warning at time       :      8696.666667
    Generated by Unit     :     3
    Generated by Type     :    51
    Message               : The correlation for the saturation temperature used in the cooling tower model was used with an enthalpy value outside the allowable range.
 
 
*** Warning at time       :      8696.666667
    Generated by Unit     :     3
    Generated by Type     :    51
    Message               : The correlation for the saturation temperature used in the cooling tower model was used with an enthalpy value outside the allowable range.
 
 
*** Warning at time       :      8698.500000
    Generated by Unit     :     3
    Generated by Type     :    51
    Message               : The correlation for the saturation temperature used in the cooling tower model was used with an enthalpy value outside the allowable range.
 
 
*** Warning at time       :      8698.500000
    Generated by Unit     :     3
    Generated by Type     :    51
    Message               : The correlation for the saturation temperature used in the cooling tower model was used with an enthalpy value outside the allowable range.
 

 *TRACE*  UNIT   8  TYPE   11  AT TIME   8.7019166666666661E+03  ITERATION     31  CALL   45436  ITERATIVE CALL
 P  3.0000000000000000E+00
 I  1.1464241567641679E+01  6.0798073788631218E+03  1.4690705624696205E+01  2.4319229515452495E+04  5.0000000000000000E-01
 O  1.4045412813285301E+01  1.5199518447157809E+04

 *TRACE*  UNIT  14  TYPE   52  AT TIME   8.7019166666666661E+03  ITERATION     31  CALL   40743  ITERATIVE CALL
 P  2.0000000000000000E+00  6.0000000000000000E+00  1.3000000000000000E+01  4.2000000000000002E+00  4.8700000000000004E-01
 P  9.0000000000000028E-03  8.0000000000000019E-03  1.4003999630000001E+03  3.0000000000000008E-04  4.0000000000000010E-03
 P  1.0500000000000000E+03  8.5319997700000010E+02  1.0000000000000000E+00  3.6000000000000004E-02  3.2000000000000008E-02
 I  2.9401075504702760E+01  6.3728376327787991E-03  2.6778602001980889E+04  1.1464241567641679E+01  2.4319229515452495E+04
 O  1.7378099695432390E+01  6.3728376327787991E-03  2.6778602001980889E+04  1.4680674762077327E+01  2.4319229515452495E+04
 O  3.2743384724264999E+05  3.2743384724264999E+05  0.0000000000000000E+00  1.0000000000000000E+00  2.5052563863499856E+01
 O  0.0000000000000000E+00  0.0000000000000000E+00
